*SRC=BZX84C3V3;DI_BZX84C3V3;Diodes;Zener <=10V; 3.30V  0.350W   Diodes Inc.
*SYM=HZEN
.SUBCKT BZX84C3V3  1 2
*        Terminals    A   K
  D1 1 2 DF
  DZ 3 1 DR
  VZ 2 3 0.799
.MODEL DF D (IS=43.7p RS=35.2 N=1.10 CJO=127p VJ=0.750 M=0.330 TT=50.1n)
.MODEL DR D (IS=8.74f RS=79.5 N=3.00)
.ENDS
