**************************************
*      Model Generated by MODPEX     *
*Copyright(c) Symmetry Design Systems*
*         All Rights Reserved        *
*    UNPUBLISHED LICENSED SOFTWARE   *
*   Contains Proprietary Information *
*      Which is The Property of      *
*     SYMMETRY OR ITS LICENSORS      *
*Commercial Use or Resale Restricted *
*   by Symmetry License Agreement    *
**************************************
* Model generated on May  3, 07
* MODEL FORMAT: SPICE3
.MODEL mjl1302a pnp(
+IS=7.56722e-11 BF=148.663 NF=1.0861 VAF=33.2962
+IKF=6.03056 ISE=7.00157e-12 NE=3.37477 BR=3.57438
+NR=1.38503 VAR=2.45693 IKR=7.65272 ISC=4.75e-13
+NC=3.96875 RB=3.55494 IRB=0.217628 RBM=0.1
+RE=0.000905557 RC=0.0997087 XTB=1.30215 XTI=1
+EG=1.206 CJE=1.62625e-08 VJE=0.99 MJE=0.496165
+TF=2.98166e-09 XTF=1000 VTF=3.58167 ITF=546.327
+CJC=1.72466e-09 VJC=0.814009 MJC=0.457122 XCJC=1
+FC=0.207567 CJS=0 VJS=0.75 MJS=0.5
+TR=1e-07 PTF=0 KF=0 AF=1)

