**************************************
*      Model Generated by MODPEX     *
*Copyright(c) Symmetry Design Systems*
*         All Rights Reserved        *
*    UNPUBLISHED LICENSED SOFTWARE   *
*   Contains Proprietary Information *
*      Which is The Property of      *
*     SYMMETRY OR ITS LICENSORS      *
*Commercial Use or Resale Restricted *
*   by Symmetry License Agreement    *
**************************************
* Model generated on May  3, 07
* MODEL FORMAT: SPICE3
.MODEL mjl3281a npn(
+IS=8.26882e-10 BF=97.5769 NF=1.27505 VAF=63.6913
+IKF=7.75466 ISE=7.44075e-12 NE=3.39947 BR=0.1
+NR=1.6501 VAR=7.8831 IKR=15.9415 ISC=4.16531e-13
+NC=3.98207 RB=1.0642 IRB=2.65716 RBM=1.0642
+RE=0.0001 RC=0.051212 XTB=0.82132 XTI=1
+EG=1.206 CJE=1.10527e-08 VJE=0.677092 MJE=0.394732
+TF=1.93853e-09 XTF=1000 VTF=4.32084 ITF=149.92
+CJC=1.00256e-09 VJC=0.924803 MJC=0.524843 XCJC=0.100008
+FC=0.8 CJS=0 VJS=0.75 MJS=0.5
+TR=1e-07 PTF=0 KF=0 AF=1)

