Version 4
SHEET 1 2312 1292
WIRE -496 -64 -656 -64
WIRE -416 -64 -496 -64
WIRE -160 -64 -416 -64
WIRE 816 -64 -160 -64
WIRE -160 -32 -160 -64
WIRE -496 -16 -496 -64
WIRE -416 -16 -416 -64
WIRE 704 -16 224 -16
WIRE 816 -16 816 -64
WIRE 816 -16 768 -16
WIRE -656 0 -656 -64
WIRE 224 16 224 -16
WIRE -496 80 -496 48
WIRE -416 80 -416 48
WIRE -160 80 -160 48
WIRE 96 80 -160 80
WIRE 560 80 352 80
WIRE 720 80 560 80
WIRE 816 80 816 -16
WIRE 816 80 720 80
WIRE -160 96 -160 80
WIRE 720 96 720 80
WIRE 816 96 816 80
WIRE -656 112 -656 80
WIRE 96 176 32 176
WIRE 816 176 352 176
WIRE 560 192 560 80
WIRE 720 192 720 160
WIRE 816 192 816 176
WIRE -160 208 -160 176
WIRE 32 208 32 176
WIRE 768 208 736 208
WIRE 496 240 464 240
WIRE -224 272 -336 272
WIRE 96 272 -224 272
WIRE 464 272 464 240
WIRE 464 272 352 272
WIRE 736 288 736 208
WIRE 736 288 560 288
WIRE -224 304 -224 272
WIRE 560 304 560 288
WIRE 816 304 816 288
WIRE 1008 304 816 304
WIRE 1168 304 1088 304
WIRE 1280 304 1168 304
WIRE 1408 304 1280 304
WIRE 1488 304 1408 304
WIRE 1600 304 1488 304
WIRE 1280 320 1280 304
WIRE 1408 320 1408 304
WIRE 1488 320 1488 304
WIRE 1600 320 1600 304
WIRE -336 336 -336 272
WIRE 816 336 816 304
WIRE 464 352 464 272
WIRE 496 352 464 352
WIRE -16 368 -32 368
WIRE 96 368 48 368
WIRE 400 368 352 368
WIRE 1168 368 1168 304
WIRE -224 400 -224 368
WIRE 1280 416 1280 384
WIRE 1408 416 1408 384
WIRE 1488 416 1488 384
WIRE 1600 416 1600 400
WIRE 560 432 560 400
WIRE 816 432 816 400
WIRE 96 464 48 464
WIRE -336 480 -336 400
WIRE -224 480 -336 480
WIRE 400 480 400 368
WIRE 1168 480 1168 448
WIRE 1168 480 400 480
WIRE 1168 512 1168 480
WIRE -224 528 -224 480
WIRE 48 560 48 464
WIRE 176 560 176 528
WIRE 176 560 48 560
WIRE 272 560 272 528
WIRE 272 560 176 560
WIRE 272 576 272 560
WIRE 1168 640 1168 592
FLAG 1168 640 0
FLAG -32 368 0
FLAG -656 112 0
FLAG -656 -64 IN
FLAG 1600 304 OUT
FLAG 1600 416 0
FLAG 1408 416 0
FLAG 272 576 0
FLAG 816 432 0
FLAG 32 208 0
FLAG -224 528 0
FLAG -496 80 0
FLAG -416 80 0
FLAG 1280 416 0
FLAG 720 192 0
FLAG 1488 416 0
FLAG -160 208 0
FLAG 560 432 0
SYMBOL LTC3864 224 272 R0
SYMATTR InstName U1
SYMBOL ind 992 320 R270
WINDOW 0 32 56 VTop 2
WINDOW 3 5 56 VBottom 2
SYMATTR InstName Lo1
SYMATTR Value 10µ
SYMATTR SpiceLine Ipk=10 Rser=14m
SYMBOL res 1184 352 M0
SYMATTR InstName RfbTop1
SYMATTR Value 100K
SYMBOL res 1184 496 M0
SYMATTR InstName RfbBot1
SYMATTR Value 5.6k
SYMBOL cap 704 0 R270
WINDOW 0 32 32 VTop 2
WINDOW 3 0 32 VBottom 2
SYMATTR InstName C2
SYMATTR Value 470n
SYMBOL cap 48 352 R90
WINDOW 0 0 32 VBottom 2
WINDOW 3 32 32 VTop 2
SYMATTR InstName C3
SYMATTR Value 10n
SYMBOL voltage -656 -16 R0
WINDOW 3 20 93 Left 2
WINDOW 123 0 0 Left 2
WINDOW 39 0 0 Left 2
SYMATTR Value 28
SYMATTR InstName V1
SYMBOL cap 1424 320 M0
WINDOW 123 33 91 Left 2
SYMATTR InstName Cob1
SYMATTR Value 47µ
SYMATTR SpiceLine V=25
SYMBOL pmos 768 288 M180
SYMATTR InstName M1
SYMATTR Value FDS4685
SYMBOL res 800 80 R0
SYMATTR InstName R1
SYMATTR Value 15m
SYMBOL schottky 832 400 R180
WINDOW 0 24 64 Left 2
WINDOW 3 24 0 Left 2
SYMATTR InstName D1
SYMATTR Value PDS760
SYMATTR Description Diode
SYMATTR Type diode
SYMBOL cap 704 96 R0
SYMATTR InstName C4
SYMATTR Value 100n
SYMBOL cap -240 304 R0
SYMATTR InstName C1
SYMATTR Value 3300p
SYMBOL cap -352 336 R0
SYMATTR InstName C5
SYMATTR Value 3300p
SYMBOL res -240 384 R0
SYMATTR InstName R3
SYMATTR Value 10k
SYMBOL cap -512 -16 R0
SYMATTR InstName C6
SYMATTR Value 47µ
SYMBOL cap -432 -16 R0
SYMATTR InstName C7
SYMATTR Value 22µ
SYMBOL cap 1264 320 R0
SYMATTR InstName C8
SYMATTR Value 22µ
SYMATTR SpiceLine V=25 Rser=0.2
SYMBOL res 1584 304 R0
SYMATTR InstName R2
SYMATTR Value 4
SYMBOL cap 1472 320 R0
SYMATTR InstName C9
SYMATTR Value 47µ
SYMATTR SpiceLine Rser=1
SYMBOL res -176 -48 R0
SYMATTR InstName R4
SYMATTR Value 390k
SYMBOL res -176 80 R0
SYMATTR InstName R5
SYMATTR Value 33K
SYMBOL npn 496 192 R0
SYMATTR InstName Q1
SYMATTR Value BC817-40
SYMBOL pnp 496 400 M180
SYMATTR InstName Q2
SYMATTR Value BC807-40
TEXT -80 664 Left 2 !.tran 10m startup
TEXT -72 704 Left 2 !;.meas Pin AVG -V(IN)*I(V1)
TEXT -72 736 Left 2 !;.meas Pout AVG V(OUT)*I(I1)
TEXT -72 760 Left 2 !;.meas Eff param Pout/Pin
TEXT -56 792 Left 2 !;.step param Iload .2 3 1
