Version 4
SHEET 1 880 680
WIRE 0 -128 -160 -128
WIRE 176 -128 0 -128
WIRE 368 -128 176 -128
WIRE 0 -96 0 -128
WIRE 176 -64 176 -128
WIRE 176 32 176 16
WIRE 288 32 176 32
WIRE 176 80 176 32
WIRE 288 96 288 32
WIRE 368 96 368 -128
WIRE 0 128 0 -16
WIRE 112 128 0 128
WIRE -160 144 -160 -128
WIRE 0 176 0 128
WIRE -160 416 -160 224
WIRE 0 416 0 256
WIRE 0 416 -160 416
WIRE 176 416 176 176
WIRE 176 416 0 416
WIRE 288 416 288 160
WIRE 288 416 176 416
WIRE 368 416 368 176
WIRE 368 416 288 416
WIRE 0 496 0 416
FLAG 0 496 0
SYMBOL npn 112 80 R0
WINDOW 0 -52 83 Left 2
WINDOW 3 -57 112 Left 2
SYMATTR InstName Q1
SYMATTR Value 2SCR514P
SYMBOL res -16 -112 R0
SYMATTR InstName R1
SYMATTR Value 2.735k
SYMBOL res -16 160 R0
WINDOW 0 -34 61 Left 2
WINDOW 3 -36 84 Left 2
SYMATTR InstName R2
SYMATTR Value 1k
SYMBOL res 160 -80 R0
SYMATTR InstName R3
SYMATTR Value 16
SYMBOL current -160 224 M180
WINDOW 0 24 80 Left 2
WINDOW 3 24 0 Left 2
WINDOW 123 0 0 Left 0
WINDOW 39 0 0 Left 0
SYMATTR InstName I1
SYMATTR Value 10m
SYMBOL current 368 176 M180
WINDOW 0 24 80 Left 2
WINDOW 3 24 0 Left 2
WINDOW 123 24 -28 Left 2
WINDOW 39 0 0 Left 0
SYMATTR InstName I2
SYMATTR Value SINE(0 0)
SYMATTR Value2 AC 1m
SYMBOL cap 272 96 R0
SYMATTR InstName C1
SYMATTR Value 33n
TEXT -474 114 Left 2 !.ac dec 10m 0.1 10g
