Version 4
SHEET 1 1672 920
WIRE 544 -448 208 -448
WIRE 880 -448 624 -448
WIRE 976 -448 880 -448
WIRE 992 -448 976 -448
WIRE 992 -384 992 -448
WIRE 992 -288 992 -304
WIRE 208 -192 208 -448
WIRE -32 -128 -336 -128
WIRE 880 -128 880 -448
WIRE 880 -128 448 -128
WIRE 880 -80 880 -128
WIRE -336 0 -336 -128
WIRE -224 0 -336 0
WIRE -32 0 -160 0
WIRE 832 0 448 0
WIRE -336 48 -336 0
WIRE 880 128 880 16
WIRE 880 128 448 128
WIRE 944 128 880 128
WIRE 1200 128 1024 128
WIRE 1328 128 1200 128
WIRE 1408 128 1328 128
WIRE 1536 128 1408 128
WIRE 1536 192 1536 128
WIRE -256 256 -336 256
WIRE -96 256 -176 256
WIRE -32 256 -96 256
WIRE 560 256 448 256
WIRE 608 256 560 256
WIRE 880 256 880 128
WIRE 880 256 672 256
WIRE -96 272 -96 256
WIRE 1200 272 1200 128
WIRE -336 304 -336 256
WIRE 560 304 560 256
WIRE 1536 320 1536 272
WIRE 560 384 560 368
WIRE 560 384 448 384
WIRE -96 400 -96 336
WIRE -336 416 -336 368
WIRE 880 416 880 256
WIRE 1088 416 880 416
WIRE 880 432 880 416
WIRE 1088 448 1088 416
WIRE 1200 464 1200 336
WIRE -32 512 -112 512
WIRE 832 512 448 512
WIRE 880 560 880 528
WIRE 1088 560 1088 512
WIRE 1088 560 880 560
WIRE 96 672 96 576
WIRE 320 672 320 576
WIRE 880 672 880 560
WIRE -112 736 -112 512
WIRE -64 736 -112 736
WIRE 1328 736 1328 128
WIRE 1328 736 16 736
WIRE -112 880 -112 816
FLAG 992 -288 0
FLAG 976 -448 IN
FLAG 1408 128 OUT
FLAG -336 48 0
FLAG -336 416 0
FLAG -112 880 0
FLAG 96 672 0
FLAG 320 672 0
FLAG 560 448 0
FLAG 880 672 0
FLAG 1200 464 0
FLAG 1536 320 0
FLAG -96 400 0
SYMBOL PowerProducts\\LTC1775 208 192 R0
SYMATTR InstName U1
SYMBOL voltage 992 -400 R0
WINDOW 123 0 0 Left 2
WINDOW 39 0 0 Left 2
SYMATTR InstName V1
SYMATTR Value 25
SYMBOL cap -160 -16 R90
WINDOW 0 0 32 VBottom 2
WINDOW 3 32 32 VTop 2
SYMATTR InstName C1
SYMATTR Value 100n
SYMBOL res -160 240 R90
WINDOW 0 0 56 VBottom 2
WINDOW 3 32 56 VTop 2
SYMATTR InstName R1
SYMATTR Value 20K
SYMBOL cap -352 304 R0
SYMATTR InstName C2
SYMATTR Value 2.2n
SYMBOL nmos 832 -80 R0
SYMATTR InstName M1
SYMATTR Value IRL3915
SYMBOL cap 672 240 R90
WINDOW 0 0 32 VBottom 2
WINDOW 3 32 32 VTop 2
SYMATTR InstName C4
SYMATTR Value 470n
SYMBOL ind 928 144 R270
WINDOW 0 32 56 VTop 2
WINDOW 3 5 56 VBottom 2
SYMATTR InstName L1
SYMATTR Value 12µ
SYMATTR SpiceLine Ipk=20 Rser=0.004
SYMBOL schottky 576 368 R180
WINDOW 0 24 64 Left 2
WINDOW 3 24 0 Left 2
SYMATTR InstName D1
SYMATTR Value CMDSH2-3
SYMATTR Description Diode
SYMATTR Type diode
SYMBOL cap 544 384 R0
SYMATTR InstName C6
SYMATTR Value 4.7µ
SYMBOL res 32 720 R90
WINDOW 0 0 56 VBottom 2
WINDOW 3 32 56 VTop 2
SYMATTR InstName R2
SYMATTR Value 100K
SYMBOL res -96 832 R180
WINDOW 0 36 76 Left 2
WINDOW 3 36 40 Left 2
SYMATTR InstName R3
SYMATTR Value 11K
SYMBOL cap -112 272 R0
SYMATTR InstName C7
SYMATTR Value 220p
SYMBOL schottky 1104 512 R180
WINDOW 0 24 64 Left 2
WINDOW 3 24 0 Left 2
SYMATTR InstName D3
SYMATTR Value B540C
SYMATTR Description Diode
SYMATTR Type diode
SYMBOL res 640 -464 R90
WINDOW 0 0 56 VBottom 2
WINDOW 3 32 56 VTop 2
SYMATTR InstName R5
SYMATTR Value 1
SYMATTR SpiceLine pwr=0.125
SYMBOL nmos 832 432 R0
SYMATTR InstName M4
SYMATTR Value IRL3915
SYMBOL cap 1184 272 R0
SYMATTR InstName C3
SYMATTR Value 680µ
SYMBOL res 1520 176 R0
SYMATTR InstName R4
SYMATTR Value 1K
TEXT -712 792 Left 2 !.tran 25m steady nodiscard
