Version 4
SHEET 1 2312 1292
WIRE -496 -64 -656 -64
WIRE -416 -64 -496 -64
WIRE -160 -64 -416 -64
WIRE 496 -64 -160 -64
WIRE -160 -32 -160 -64
WIRE -496 -16 -496 -64
WIRE -416 -16 -416 -64
WIRE 384 -16 224 -16
WIRE 496 -16 496 -64
WIRE 496 -16 448 -16
WIRE -656 0 -656 -64
WIRE 224 16 224 -16
WIRE -496 80 -496 48
WIRE -416 80 -416 48
WIRE -160 80 -160 48
WIRE 96 80 -160 80
WIRE 400 80 352 80
WIRE 496 80 496 -16
WIRE 496 80 400 80
WIRE -160 96 -160 80
WIRE 400 96 400 80
WIRE 496 96 496 80
WIRE -656 112 -656 80
WIRE 96 176 32 176
WIRE 496 176 352 176
WIRE 400 192 400 160
WIRE 496 192 496 176
WIRE -160 208 -160 176
WIRE 32 208 32 176
WIRE 448 208 416 208
WIRE -224 272 -336 272
WIRE 96 272 -224 272
WIRE 416 272 416 208
WIRE 416 272 352 272
WIRE 496 304 496 288
WIRE 688 304 496 304
WIRE 848 304 768 304
WIRE 960 304 848 304
WIRE 1088 304 960 304
WIRE 1168 304 1088 304
WIRE 1280 304 1168 304
WIRE 960 320 960 304
WIRE 1088 320 1088 304
WIRE 1168 320 1168 304
WIRE 1280 320 1280 304
WIRE -336 336 -336 272
WIRE 496 336 496 304
WIRE -16 368 -32 368
WIRE 96 368 48 368
WIRE 416 368 352 368
WIRE 848 368 848 304
WIRE -224 400 -224 336
WIRE 960 416 960 384
WIRE 1088 416 1088 384
WIRE 1168 416 1168 384
WIRE 1280 416 1280 400
WIRE 496 432 496 400
WIRE 96 464 48 464
WIRE -336 480 -336 400
WIRE -224 480 -336 480
WIRE 416 480 416 368
WIRE 848 480 848 448
WIRE 848 480 416 480
WIRE 848 512 848 480
WIRE -224 528 -224 480
WIRE 48 560 48 464
WIRE 176 560 176 528
WIRE 176 560 48 560
WIRE 272 560 272 528
WIRE 272 560 176 560
WIRE 272 576 272 560
WIRE 848 640 848 592
FLAG 848 640 0
FLAG -32 368 0
FLAG -656 112 0
FLAG -656 -64 IN
FLAG 1280 304 OUT
FLAG 1280 416 0
FLAG 1088 416 0
FLAG 272 576 0
FLAG 496 432 0
FLAG 32 208 0
FLAG -224 528 0
FLAG -496 80 0
FLAG -416 80 0
FLAG 960 416 0
FLAG 400 192 0
FLAG 1168 416 0
FLAG -160 208 0
SYMBOL LTC3864 224 272 R0
SYMATTR InstName U1
SYMBOL ind 672 320 R270
WINDOW 0 32 56 VTop 2
WINDOW 3 5 56 VBottom 2
SYMATTR InstName Lo1
SYMATTR Value 10µ
SYMATTR SpiceLine Ipk=10 Rser=14m
SYMBOL res 864 352 M0
SYMATTR InstName RfbTop1
SYMATTR Value 100K
SYMBOL res 864 496 M0
SYMATTR InstName RfbBot1
SYMATTR Value 5.6k
SYMBOL cap 384 0 R270
WINDOW 0 32 32 VTop 2
WINDOW 3 0 32 VBottom 2
SYMATTR InstName C2
SYMATTR Value 470n
SYMBOL cap 48 352 R90
WINDOW 0 0 32 VBottom 2
WINDOW 3 32 32 VTop 2
SYMATTR InstName C3
SYMATTR Value 10n
SYMBOL voltage -656 -16 R0
WINDOW 3 20 93 Left 2
WINDOW 123 0 0 Left 2
WINDOW 39 0 0 Left 2
SYMATTR Value 16
SYMATTR InstName V1
SYMBOL cap 1104 320 M0
WINDOW 123 33 91 Left 2
SYMATTR InstName Cob1
SYMATTR Value 47µ
SYMATTR SpiceLine V=25
SYMBOL pmos 448 288 M180
SYMATTR InstName M1
SYMATTR Value FDS4685
SYMBOL res 480 80 R0
SYMATTR InstName R1
SYMATTR Value 15m
SYMBOL schottky 512 400 R180
WINDOW 0 24 64 Left 2
WINDOW 3 24 0 Left 2
SYMATTR InstName D1
SYMATTR Value PDS760
SYMATTR Description Diode
SYMATTR Type diode
SYMBOL cap 384 96 R0
SYMATTR InstName C4
SYMATTR Value 100n
SYMBOL cap -240 272 R0
SYMATTR InstName C1
SYMATTR Value 3300p
SYMBOL cap -352 336 R0
SYMATTR InstName C5
SYMATTR Value 3300p
SYMBOL res -240 384 R0
SYMATTR InstName R3
SYMATTR Value 10k
SYMBOL cap -512 -16 R0
SYMATTR InstName C6
SYMATTR Value 47µ
SYMBOL cap -432 -16 R0
SYMATTR InstName C7
SYMATTR Value 100n
SYMBOL cap 944 320 R0
SYMATTR InstName C8
SYMATTR Value 100n
SYMATTR SpiceLine V=25
SYMBOL res 1264 304 R0
SYMATTR InstName R2
SYMATTR Value 4
SYMBOL cap 1152 320 R0
SYMATTR InstName C9
SYMATTR Value 47µ
SYMATTR SpiceLine Rser=10m
SYMBOL res -176 -48 R0
SYMATTR InstName R4
SYMATTR Value 390k
SYMBOL res -176 80 R0
SYMATTR InstName R5
SYMATTR Value 33K
TEXT 728 72 Left 2 !.tran 10m startup
TEXT 728 40 Left 2 ;If simulation model is not found, please "Sync release".
TEXT 728 -32 Left 2 ;Note: Simulation is running at the default switching frequency for the part.\nPlease manually adjust for additional switching frequency options.
TEXT 736 112 Left 2 !;.meas Pin AVG -V(IN)*I(V1)
TEXT 736 144 Left 2 !;.meas Pout AVG V(OUT)*I(I1)
TEXT 736 168 Left 2 !;.meas Eff param Pout/Pin
TEXT 752 200 Left 2 !;.step param Iload .2 3 1
